
#======================================================================
# CRYSTAL DATA
#----------------------------------------------------------------------
data_VESTA_phase_1

_chemical_name_common                  'New structure'
_cell_length_a                         8.750000
_cell_length_b                         8.750000
_cell_length_c                         3.380000
_cell_angle_alpha                      90.000000
_cell_angle_beta                       90.000000
_cell_angle_gamma                      120.000000
_cell_volume                           224.111144
_space_group_name_H-M_alt              'P 1'
_space_group_IT_number                 1

loop_
_space_group_symop_operation_xyz
   'x, y, z'

loop_
   _atom_site_label
   _atom_site_occupancy
   _atom_site_fract_x
   _atom_site_fract_y
   _atom_site_fract_z
   _atom_site_adp_type
   _atom_site_U_iso_or_equiv
   _atom_site_type_symbol
   C1         1.0     0.906886     0.093114     0.218930    Uiso  ? C
   C2         1.0     0.906886     0.813771     0.218930    Uiso  ? C
   C3         1.0     0.186229     0.093114     0.218930    Uiso  ? C
   C4         1.0     0.093114     0.906886     0.218930    Uiso  ? C
   C5         1.0     0.093114     0.186229     0.218930    Uiso  ? C
   C6         1.0     0.813771     0.906886     0.218930    Uiso  ? C
   S1         1.0     0.793466     0.206534     0.218930    Uiso  ? S
   S2         1.0     0.793466     0.586933     0.218930    Uiso  ? S
   S3         1.0     0.413067     0.206534     0.218930    Uiso  ? S
   S4         1.0     0.206534     0.793466     0.218930    Uiso  ? S
   S5         1.0     0.206534     0.413067     0.218930    Uiso  ? S
   S6         1.0     0.586933     0.793466     0.218930    Uiso  ? S
   Cu1        1.0     0.500000     0.000000     0.218930    Uiso  ? Cu
   Cu2        1.0    -0.000000     0.500000     0.218930    Uiso  ? Cu
   Cu3        1.0     0.500000     0.500000     0.218930    Uiso  ? Cu
